powerflow/Codes/PF_Formulation/resultados_csv/16/9bus/barras.csv
caso,script,bus_id,vm_pu,va_rad,pd_pu,qd_pu,pg_pu,qg_pu,bus_type
9bus.pwf,16,1,1.074999999908073,0.0,0.0,0.0,1.424913923705419,0.10878732888807265,3
9bus.pwf,16,2,1.0749999999079336,-0.031950559230877695,0.0,0.0,0.9,-0.025954277975002063,2
9bus.pwf,16,3,1.0749999999036177,-0.02526732398311487,0.0,0.0,0.85,-0.1373547978430306,2
9bus.pwf,16,4,1.0718935709279849,-0.07128840464205412,0.0,0.0,0.0,0.0,1
9bus.pwf,16,5,1.0500785120613512,-0.13446293295517903,1.25,0.5,0.0,0.0,1
9bus.pwf,16,6,1.0641654474886046,-0.11692357938690055,0.9,0.3,0.0,0.0,1
9bus.pwf,16,7,1.0777799070344403,-0.08051906428521431,0.0,0.0,0.0,0.0,1
9bus.pwf,16,8,1.0690931890341404,-0.11106000575792177,1.0,0.35,0.0,0.0,1
9bus.pwf,16,9,1.0834786408657031,-0.06804529558816531,0.0,0.0,0.0,0.0,1
